examples/test_perturbation_outputs/pert_min_cost/pglib_opf_case179_goc.m
%% MATPOWER Case Format : Version 2
function mpc = pglib_opf_case179_goc
mpc.version = '2';

%%-----  Power Flow Data  -----%%
%% system MVA base
mpc.baseMVA = 100.0;
%% bus data
%    bus_i    type    Pd    Qd    Gs    Bs    area    Vm    Va    baseKV    zone    Vmax    Vmin
mpc.bus = [
	2	1	926.77	-54.77000000000001	0.0	0.0	1	1.003	0.0	1.0	1	1.108	0.898				
	3	1	0.0	0.0	0.0	0.0	1	1.003	0.0	1.0	1	1.108	0.898				
	4	2	46.71	0.0	0.0	0.0	1	1.003	0.0	1.0	1	1.108	0.898				
	5	1	1271.04	-122.37	0.0	0.0	1	1.003	0.0	1.0	1	1.108	0.898				
	6	2	48.57	0.0	0.0	0.0	1	1.003	0.0	1.0	1	1.108	0.898				
	7	1	0.0	0.0	0.0	-112.99999999999999	1	1.003	0.0	1.0	1	1.108	0.898				
	8	1	113.45	-54.21	0.0	-155.0	1	1.003	0.0	1.0	1	1.108	0.898				
	9	2	50.0	0.0	0.0	0.0	1	1.003	0.0	1.0	1	1.108	0.898				
	10	1	67.39	22.91	0.0	0.0	1	1.003	0.0	1.0	1	1.108	0.898				
	11	2	47.87	0.0	0.0	0.0	1	1.003	0.0	1.0	1	1.108	0.898				
	12	1	41.43	65.76	0.0	-190.0	2	1.003	0.0	1.0	1	1.108	0.898				
	13	2	48.55	0.0	0.0	0.0	2	1.003	0.0	1.0	1	1.108	0.898				
	14	1	0.0	0.0	0.0	-391.0	2	1.003	0.0	1.0	1	1.108	0.898				
	15	2	46.55	0.0	0.0	0.0	2	1.003	0.0	1.0	1	1.108	0.898				
	16	1	434.68	215.19999999999996	0.0	-146.0	2	1.003	0.0	1.0	1	1.108	0.898				
	17	1	459.25	4.79	0.0	390.0	1	1.003	0.0	1.0	1	1.108	0.898				
	18	2	51.790000000000006	0.0	0.0	0.0	1	1.003	0.0	1.0	1	1.108	0.898				
	19	1	327.45	-64.08	0.0	-426.99999999999994	2	1.003	0.0	1.0	1	1.108	0.898				
	20	1	0.0	0.0	0.0	0.0	2	1.003	0.0	1.0	1	1.108	0.898				
	21	1	0.0	0.0	0.0	0.0	2	1.003	0.0	1.0	1	1.108	0.898				
	22	1	0.0	0.0	0.0	0.0	2	1.003	0.0	1.0	1	1.108	0.898				
	23	1	0.0	0.0	0.0	0.0	2	1.003	0.0	1.0	1	1.108	0.898				
	24	1	0.0	0.0	0.0	0.0	2	1.003	0.0	1.0	1	1.108	0.898				
	25	1	0.0	0.0	0.0	0.0	2	1.003	0.0	1.0	1	1.108	0.898				
	26	1	0.0	0.0	0.0	0.0	2	1.003	0.0	1.0	1	1.108	0.898				
	27	1	0.0	0.0	0.0	0.0	2	1.003	0.0	1.0	1	1.108	0.898				
	28	1	0.0	0.0	0.0	0.0	1	1.003	0.0	1.0	1	1.108	0.898				
	29	1	0.0	0.0	0.0	0.0	1	1.003	0.0	1.0	1	1.108	0.898				
	30	2	49.3	0.0	0.0	0.0	1	1.003	0.0	1.0	1	1.108	0.898				
	31	1	2376.39	1052.35	0.0	0.0	1	1.003	0.0	1.0	1	1.108	0.898				
	32	1	0.0	0.0	0.0	0.0	1	1.003	0.0	1.0	1	1.108	0.898				
	33	1	0.0	0.0	0.0	0.0	1	1.003	0.0	1.0	1	1.108	0.898				
	34	1	1692.19	703.18	0.0	0.0	1	1.003	0.0	1.0	1	1.108	0.898				
	35	2	45.09	0.0	0.0	0.0	1	1.003	0.0	1.0	1	1.108	0.898				
	36	2	51.16	0.0	0.0	0.0	1	1.003	0.0	1.0	1	1.108	0.898				
	37	1	-843.68	1045.02	0.0	911.9999999999999	2	1.003	0.0	1.0	1	1.108	0.898				
	38	1	0.0	0.0	0.0	0.0	2	1.003	0.0	1.0	1	1.108	0.898				
	39	1	0.0	0.0	0.0	0.0	2	1.003	0.0	1.0	1	1.108	0.898				
	40	2	51.45000000000001	0.0	0.0	0.0	2	1.003	0.0	1.0	1	1.108	0.898				
	41	1	69.79	28.000000000000004	0.0	0.0	2	1.003	0.0	1.0	1	1.108	0.898				
	42	1	0.0	0.0	0.0	0.0	2	1.003	0.0	1.0	1	1.108	0.898				
	43	2	49.01	0.0	0.0	0.0	2	1.003	0.0	1.0	1	1.108	0.898				
	44	1	1098.25	902.5	0.0	430.0	1	1.003	0.0	1.0	1	1.108	0.898				
	45	2	52.83	0.0	0.0	0.0	1	1.003	0.0	1.0	1	1.108	0.898				
	46	1	-35.89	-17.32	0.0	0.0	2	1.003	0.0	1.0	1	1.108	0.898				
	47	2	53.25	0.0	0.0	0.0	2	1.003	0.0	1.0	1	1.108	0.898				
	48	1	55.04	24.01	0.0	0.0	2	1.003	0.0	1.0	1	1.108	0.898				
	49	1	0.0	0.0	0.0	-80.0	2	1.003	0.0	1.0	1	1.108	0.898				
	50	1	172.41	62.09	0.0	0.0	2	1.003	0.0	1.0	1	1.108	0.898				
	51	1	115.97999999999999	-58.77	0.0	0.0	2	1.003	0.0	1.0	1	1.108	0.898				
	52	1	0.0	0.0	0.0	0.0	2	1.003	0.0	1.0	1	1.108	0.898				
	53	1	0.0	0.0	0.0	0.0	2	1.003	0.0	1.0	1	1.108	0.898				
	54	1	74.1	29.03	0.0	0.0	2	1.003	0.0	1.0	1	1.108	0.898				
	55	1	427.39000000000004	126.16000000000001	0.0	0.0	2	1.003	0.0	1.0	1	1.108	0.898				
	56	1	0.0	0.0	0.0	0.0	2	1.003	0.0	1.0	1	1.108	0.898				
	57	1	62.17	24.03	0.0	0.0	2	1.003	0.0	1.0	1	1.108	0.898				
	58	1	59.47	25.47	0.0	0.0	2	1.003	0.0	1.0	1	1.108	0.898				
	59	1	480.82000000000005	-6.570000000000001	0.0	0.0	2	1.003	0.0	1.0	1	1.108	0.898				
	60	1	-1459.73	1687.42	0.0	2146.0	2	1.003	0.0	1.0	1	1.108	0.898				
	61	1	185.63	75.27	0.0	0.0	2	1.003	0.0	1.0	1	1.108	0.898				
	62	1	96.01	18.56	0.0	0.0	2	1.003	0.0	1.0	1	1.108	0.898				
	63	1	-69.23	30.320000000000004	0.0	-108.0	2	1.003	0.0	1.0	1	1.108	0.898				
	64	1	0.0	0.0	0.0	0.0	2	1.003	0.0	1.0	1	1.108	0.898				
	65	2	46.97	0.0	0.0	0.0	1	1.003	0.0	1.0	1	1.108	0.898				
	66	1	774.37	298.97	0.0	0.0	1	1.003	0.0	1.0	1	1.108	0.898				
	67	1	78.5	31.52	0.0	0.0	1	1.003	0.0	1.0	1	1.108	0.898				
	68	1	-35.37	174.17	0.0	576.85	1	1.003	0.0	1.0	1	1.108	0.898				
	69	1	-23.29	20.73	0.0	0.0	1	1.003	0.0	1.0	1	1.108	0.898				
	70	2	51.910000000000004	0.0	0.0	0.0	1	1.003	0.0	1.0	1	1.108	0.898				
	71	1	1486.08	1816.85	0.0	792.0	1	1.003	0.0	1.0	1	1.108	0.898				
	72	1	0.0	0.0	0.0	462.0	1	1.003	0.0	1.0	1	1.108	0.898				
	73	1	-781.91	-53.83	0.0	0.0	1	1.003	0.0	1.0	1	1.108	0.898				
	74	1	0.0	0.0	0.0	0.0	1	1.003	0.0	1.0	1	1.108	0.898				
	75	1	1223.08	413.69999999999993	0.0	0.0	1	1.003	0.0	1.0	1	1.108	0.898				
	76	1	1617.7700000000002	1164.73	0.0	1019.35	1	1.003	0.0	1.0	1	1.108	0.898				
	77	3	54.24	0.0	0.0	0.0	1	1.003	0.0	1.0	1	1.108	0.898				
	78	1	1780.83	538.1	0.0	550.0	1	1.003	0.0	1.0	1	1.108	0.898				
	79	2	53.90999999999999	0.0	0.0	0.0	1	1.003	0.0	1.0	1	1.108	0.898				
	80	1	2289.75	396.38	0.0	1200.0	1	1.003	0.0	1.0	1	1.108	0.898				
	81	1	0.0	0.0	0.0	-220.00000000000003	1	1.003	0.0	1.0	1	1.108	0.898				
	82	1	-30.36	-92.62	0.0	-674.0	1	1.003	0.0	1.0	1	1.108	0.898				
	83	1	-185.65	-127.12	0.0	-110.00000000000001	1	1.003	0.0	1.0	1	1.108	0.898				
	84	1	0.0	0.0	0.0	-220.00000000000003	1	1.003	0.0	1.0	1	1.108	0.898				
	85	1	307.42	-452.74	0.0	-869.9999999999999	1	1.003	0.0	1.0	1	1.108	0.898				
	86	1	0.0	0.0	0.0	0.0	1	1.003	0.0	1.0	1	1.108	0.898				
	87	1	0.0	0.0	0.0	0.0	1	1.003	0.0	1.0	1	1.108	0.898				
	88	1	0.0	0.0	0.0	0.0	1	1.003	0.0	1.0	1	1.108	0.898				
	89	1	0.0	0.0	0.0	0.0	1	1.003	0.0	1.0	1	1.108	0.898				
	90	1	0.0	0.0	0.0	0.0	1	1.003	0.0	1.0	1	1.108	0.898				
	91	1	0.0	0.0	0.0	0.0	1	1.003	0.0	1.0	1	1.108	0.898				
	92	1	0.0	0.0	0.0	0.0	1	1.003	0.0	1.0	1	1.108	0.898				
	93	1	0.0	0.0	0.0	0.0	1	1.003	0.0	1.0	1	1.108	0.898				
	94	1	0.0	0.0	0.0	0.0	1	1.003	0.0	1.0	1	1.108	0.898				
	95	1	0.0	0.0	0.0	0.0	1	1.003	0.0	1.0	1	1.108	0.898				
	96	1	0.0	0.0	0.0	0.0	1	1.003	0.0	1.0	1	1.108	0.898				
	97	1	0.0	0.0	0.0	0.0	1	1.003	0.0	1.0	1	1.108	0.898				
	98	1	0.0	0.0	0.0	0.0	1	1.003	0.0	1.0	1	1.108	0.898				
	99	1	0.0	0.0	0.0	0.0	1	1.003	0.0	1.0	1	1.108	0.898				
	100	1	-19.81	21.24	0.0	0.0	3	1.003	0.0	1.0	1	1.108	0.898				
	101	1	107.66	-82.5	0.0	0.0	3	1.003	0.0	1.0	1	1.108	0.898				
	102	1	23.75	26.25	0.0	0.0	2	1.003	0.0	1.0	1	1.108	0.898				
	103	2	54.620000000000005	0.0	0.0	0.0	2	1.003	0.0	1.0	1	1.108	0.898				
	104	1	167.6	-8.03	0.0	-91.0	2	1.003	0.0	1.0	1	1.108	0.898				
	105	1	14.279999999999998	-0.11	0.0	0.0	3	1.003	0.0	1.0	1	1.108	0.898				
	106	1	3.7800000000000002	0.0	0.0	0.0	3	1.003	0.0	1.0	1	1.108	0.898				
	107	1	131.26	13.819999999999999	0.0	0.0	2	1.003	0.0	1.0	1	1.108	0.898				
	108	1	28.610000000000003	-310.03	0.0	-327.0	2	1.003	0.0	1.0	1	1.108	0.898				
	109	1	427.13	35.78	0.0	-130.0	2	1.003	0.0	1.0	1	1.108	0.898				
	110	1	19.35	21.06	0.0	0.0	2	1.003	0.0	1.0	1	1.108	0.898				
	111	1	-99.3	63.54	0.0	0.0	3	1.003	0.0	1.0	1	1.108	0.898				
	112	2	54.11	0.0	0.0	0.0	3	1.003	0.0	1.0	1	1.108	0.898				
	113	1	75.99	0.0	0.0	-128.0	3	1.003	0.0	1.0	1	1.108	0.898				
	114	1	0.0	0.0	0.0	-91.0	3	1.003	0.0	1.0	1	1.108	0.898				
	115	1	-0.38	115.26	0.0	-91.0	3	1.003	0.0	1.0	1	1.108	0.898				
	116	2	51.07000000000001	0.0	0.0	0.0	3	1.003	0.0	1.0	1	1.108	0.898				
	117	1	438.1600000000001	54.83	0.0	-32.0	3	1.003	0.0	1.0	1	1.108	0.898				
	118	2	54.76	0.0	0.0	0.0	3	1.003	0.0	1.0	1	1.108	0.898				
	119	1	2650.16	3818.43	0.0	1500.0	3	1.003	0.0	1.0	1	1.108	0.898				
	120	1	0.0	0.0	0.0	0.0	3	1.003	0.0	1.0	1	1.108	0.898				
	121	1	0.0	0.0	0.0	0.0	3	1.003	0.0	1.0	1	1.108	0.898				
	122	1	0.0	0.0	0.0	0.0	3	1.003	0.0	1.0	1	1.108	0.898				
	123	1	0.0	0.0	0.0	0.0	3	1.003	0.0	1.0	1	1.108	0.898				
	124	1	0.0	0.0	0.0	0.0	3	1.003	0.0	1.0	1	1.108	0.898				
	125	1	0.0	0.0	0.0	0.0	3	1.003	0.0	1.0	1	1.108	0.898				
	126	1	0.0	0.0	0.0	0.0	3	1.003	0.0	1.0	1	1.108	0.898				
	127	1	0.0	0.0	0.0	0.0	3	1.003	0.0	1.0	1	1.108	0.898				
	128	1	0.0	0.0	0.0	0.0	3	1.003	0.0	1.0	1	1.108	0.898				
	129	1	0.0	0.0	0.0	0.0	3	1.003	0.0	1.0	1	1.108	0.898				
	130	1	0.0	0.0	0.0	0.0	3	1.003	0.0	1.0	1	1.108	0.898				
	131	1	0.0	0.0	0.0	0.0	3	1.003	0.0	1.0	1	1.108	0.898				
	132	1	0.0	0.0	0.0	0.0	2	1.003	0.0	1.0	1	1.108	0.898				
	133	1	0.0	0.0	0.0	0.0	2	1.003	0.0	1.0	1	1.108	0.898				
	134	1	0.0	0.0	0.0	0.0	2	1.003	0.0	1.0	1	1.108	0.898				
	135	1	0.0	0.0	0.0	0.0	2	1.003	0.0	1.0	1	1.108	0.898				
	136	1	414.7200000000001	17.91	0.0	0.0	2	1.003	0.0	1.0	1	1.108	0.898				
	137	1	95.26	17.51	0.0	0.0	2	1.003	0.0	1.0	1	1.108	0.898				
	138	2	46.32	0.0	0.0	0.0	2	1.003	0.0	1.0	1	1.108	0.898				
	139	1	471.1700000000001	-10.81	0.0	-319.0	2	1.003	0.0	1.0	1	1.108	0.898				
	140	2	48.52	0.0	0.0	0.0	2	1.003	0.0	1.0	1	1.108	0.898				
	141	1	1730.2800000000002	609.69	0.0	0.0	2	1.003	0.0	1.0	1	1.108	0.898				
	142	1	107.93000000000002	-26.179999999999996	0.0	0.0	2	1.003	0.0	1.0	1	1.108	0.898				
	143	1	174.36	60.86	0.0	0.0	2	1.003	0.0	1.0	1	1.108	0.898				
	144	2	45.88	0.0	0.0	0.0	2	1.003	0.0	1.0	1	1.108	0.898				
	145	1	1540.95	1238.88	0.0	400.0	2	1.003	0.0	1.0	1	1.108	0.898				
	146	1	0.0	0.0	0.0	0.0	2	1.003	0.0	1.0	1	1.108	0.898				
	147	1	0.0	0.0	0.0	-196.0	2	1.003	0.0	1.0	1	1.108	0.898				
	148	2	53.67999999999999	0.0	0.0	0.0	2	1.003	0.0	1.0	1	1.108	0.898				
	149	2	49.94	0.0	0.0	0.0	2	1.003	0.0	1.0	1	1.108	0.898				
	150	1	1578.86	75.65	0.0	0.0	2	1.003	0.0	1.0	1	1.108	0.898				
	151	1	559.23	78.48	0.0	0.0	2	1.003	0.0	1.0	1	1.108	0.898				
	152	1	191.17	45.01	0.0	0.0	2	1.003	0.0	1.0	1	1.108	0.898				
	153	1	0.0	0.0	0.0	0.0	2	1.003	0.0	1.0	1	1.108	0.898				
	154	1	511.38000000000005	-10.66	0.0	-190.0	2	1.003	0.0	1.0	1	1.108	0.898				
	155	1	210.21999999999997	74.94	0.0	-60.0	1	1.003	0.0	1.0	1	1.108	0.898				
	156	1	16.91	12.04	0.0	0.0	1	1.003	0.0	1.0	1	1.108	0.898				
	157	1	79.39	-8.29	0.0	0.0	1	1.003	0.0	1.0	1	1.108	0.898				
	158	1	53.010000000000005	41.07	0.0	-220.00000000000003	1	1.003	0.0	1.0	1	1.108	0.898				
	159	2	53.7	0.0	0.0	0.0	1	1.003	0.0	1.0	1	1.108	0.898				
	160	1	-29.29	11.72	0.0	0.0	1	1.003	0.0	1.0	1	1.108	0.898				
	161	1	137.66	104.12000000000002	0.0	0.0	1	1.003	0.0	1.0	1	1.108	0.898				
	162	2	47.79	0.0	0.0	0.0	1	1.003	0.0	1.0	1	1.108	0.898				
	163	1	0.0	0.0	0.0	0.0	1	1.003	0.0	1.0	1	1.108	0.898				
	164	1	15.049999999999999	12.06	0.0	-18.0	1	1.003	0.0	1.0	1	1.108	0.898				
	165	1	73.31	70.0	0.0	0.0	1	1.003	0.0	1.0	1	1.108	0.898				
	166	1	171.78	-39.78	0.0	-50.0	1	1.003	0.0	1.0	1	1.108	0.898				
	167	1	95.68	75.76	0.0	0.0	1	1.003	0.0	1.0	1	1.108	0.898				
	168	1	0.0	0.0	0.0	0.0	3	1.003	0.0	1.0	1	1.108	0.898				
	169	1	0.0	0.0	0.0	0.0	3	1.003	0.0	1.0	1	1.108	0.898				
	170	1	0.0	0.0	0.0	0.0	3	1.003	0.0	1.0	1	1.108	0.898				
	171	1	0.0	0.0	0.0	0.0	3	1.003	0.0	1.0	1	1.108	0.898				
	172	1	0.0	0.0	0.0	0.0	3	1.003	0.0	1.0	1	1.108	0.898				
	173	1	0.0	0.0	0.0	0.0	3	1.003	0.0	1.0	1	1.108	0.898				
	174	1	0.0	0.0	0.0	0.0	2	1.003	0.0	1.0	1	1.108	0.898				
	175	1	0.0	0.0	0.0	0.0	2	1.003	0.0	1.0	1	1.108	0.898				
	176	1	0.0	0.0	0.0	0.0	2	1.003	0.0	1.0	1	1.108	0.898				
	177	1	0.0	0.0	0.0	0.0	2	1.003	0.0	1.0	1	1.108	0.898				
	178	1	0.0	0.0	0.0	0.0	2	1.003	0.0	1.0	1	1.108	0.898				
	179	1	0.0	0.0	0.0	0.0	2	1.003	0.0	1.0	1	1.108	0.898				
	180	1	0.0	0.0	0.0	-220.00000000000003	1	1.003	0.0	1.0	1	1.108	0.898				
];

%% generator data
%    bus    Pg    Qg    Qmax    Qmin    Vg    mBase    status    Pmax    Pmin    Pc1    Pc2    Qc1min    Qc1max    Qc2min    Qc2max    ramp_agc    ramp_10    ramp_30    ramp_q    apf
mpc.gen = [
	4	994.0850000000002	-7.9399999999999995	320.28	-336.16	1.003	1600.0	1	1683.12	305.05	0.0	0.0	0.0	0.0	0.0	0.0	0.0	0.0	0.0	0.0	1683.1216				
	6	1084.63	-30.870000000000005	378.83	-440.56999999999994	1.003	2100.0	1	1938.1800000000003	231.07999999999998	0.0	0.0	0.0	0.0	0.0	0.0	0.0	0.0	0.0	0.0	1938.1774				
	9	2652.8	141.81	701.97	-418.35	1.003	4300.0	1	4498.26	807.3399999999999	0.0	0.0	0.0	0.0	0.0	0.0	0.0	0.0	0.0	0.0	4498.2554				
	11	2402.61	-17.94	899.03	-934.91	1.003	4100.0	1	3956.96	848.26	0.0	0.0	0.0	0.0	0.0	0.0	0.0	0.0	0.0	0.0	3956.9636				
	13	1929.025	207.49	697.21	-282.23	1.003	3400.0	1	3299.94	558.11	0.0	0.0	0.0	0.0	0.0	0.0	0.0	0.0	0.0	0.0	3299.9353				
	15	3479.4250000000006	361.045	1405.28	-683.19	1.003	5300.0	1	5393.53	1565.32	0.0	0.0	0.0	0.0	0.0	0.0	0.0	0.0	0.0	0.0	5393.5254				
	18	1305.43	23.19	319.0	-272.62	1.003	2000.0	1	2074.45	536.41	0.0	0.0	0.0	0.0	0.0	0.0	0.0	0.0	0.0	0.0	2074.4534				
	30	6392.915	11.185	4070.83	-4048.46	1.003	8900.0	1	9757.06	3028.77	0.0	0.0	0.0	0.0	0.0	0.0	0.0	0.0	0.0	0.0	9757.0576				
	35	5083.72	1136.34	5544.98	-3272.2999999999997	1.003	9000.0	1	8718.16	1449.28	0.0	0.0	0.0	0.0	0.0	0.0	0.0	0.0	0.0	0.0	8718.1563				
	36	2254.335	129.4	652.92	-394.12	1.003	3300.0	1	3493.62	1015.05	0.0	0.0	0.0	0.0	0.0	0.0	0.0	0.0	0.0	0.0	3493.625				
	40	191.725	48.255	247.18999999999997	-150.68	1.003	400.0	1	362.6	20.85	0.0	0.0	0.0	0.0	0.0	0.0	0.0	0.0	0.0	0.0	362.5961				
	43	400.44500000000005	71.525	311.04	-167.99	1.003	650.0	1	673.96	126.93	0.0	0.0	0.0	0.0	0.0	0.0	0.0	0.0	0.0	0.0	673.957				
	45	2010.625	89.785	765.95	-586.38	1.003	3600.0	1	3528.4	492.8500000000001	0.0	0.0	0.0	0.0	0.0	0.0	0.0	0.0	0.0	0.0	3528.4009				
	47	152.35	0.69	100.88	-99.5	1.003	220.0	1	233.68	71.02	0.0	0.0	0.0	0.0	0.0	0.0	0.0	0.0	0.0	0.0	233.6808				
	65	2932.815	353.385	1553.56	-846.79	1.003	5800.0	1	5459.92	405.71000000000004	0.0	0.0	0.0	0.0	0.0	0.0	0.0	0.0	0.0	0.0	5459.918				
	70	1239.795	-79.99	642.85	-802.8299999999999	1.003	2600.0	1	2377.38	102.21000000000001	0.0	0.0	0.0	0.0	0.0	0.0	0.0	0.0	0.0	0.0	2377.3799				
	77	7403.065	135.05	2448.15	-2178.05	1.003	10400.0	1	11165.05	3641.0800000000004	0.0	0.0	0.0	0.0	0.0	0.0	0.0	0.0	0.0	0.0	11165.0508				
	79	10354.215	2358.21	6030.37	-1313.95	1.003	20000.0	1	18208.22	2500.21	0.0	0.0	0.0	0.0	0.0	0.0	0.0	0.0	0.0	0.0	18208.2246				
	103	737.535	-14.145	327.94	-356.23	1.003	1500.0	1	1359.89	115.18000000000002	0.0	0.0	0.0	0.0	0.0	0.0	0.0	0.0	0.0	0.0	1359.8911				
	112	1328.115	-16.82	421.04999999999995	-454.69	1.003	2100.0	1	2247.11	409.11999999999995	0.0	0.0	0.0	0.0	0.0	0.0	0.0	0.0	0.0	0.0	2247.1069				
	116	805.425	-7.445	275.09	-289.98	1.003	1200.0	1	1298.69	312.16	0.0	0.0	0.0	0.0	0.0	0.0	0.0	0.0	0.0	0.0	1298.6926				
	118	4482.46	1027.675	2735.8	-680.45	1.003	6900.0	1	7386.7699999999995	1578.15	0.0	0.0	0.0	0.0	0.0	0.0	0.0	0.0	0.0	0.0	7386.77				
	138	1178.09	-18.965	307.09	-345.02	1.003	2000.0	1	2043.61	312.57	0.0	0.0	0.0	0.0	0.0	0.0	0.0	0.0	0.0	0.0	2043.6079				
	140	3469.755	594.35	2149.72	-961.0199999999999	1.003	6400.0	1	6145.22	794.29	0.0	0.0	0.0	0.0	0.0	0.0	0.0	0.0	0.0	0.0	6145.2231				
	144	1866.725	262.135	856.6	-332.33	1.003	3400.0	1	3135.12	598.33	0.0	0.0	0.0	0.0	0.0	0.0	0.0	0.0	0.0	0.0	3135.1221				
	148	2041.235	252.83	746.55	-240.89000000000001	1.003	3400.0	1	3402.54	679.93	0.0	0.0	0.0	0.0	0.0	0.0	0.0	0.0	0.0	0.0	3402.5374				
	149	2590.31	-21.69	582.17	-625.55	1.003	4400.0	1	4251.85	928.7699999999999	0.0	0.0	0.0	0.0	0.0	0.0	0.0	0.0	0.0	0.0	4251.854				
	159	2214.085	697.35	10604.58	-9209.88	1.003	3300.0	1	3483.05	945.12	0.0	0.0	0.0	0.0	0.0	0.0	0.0	0.0	0.0	0.0	3483.0479				
	162	501.62500000000006	-587.665	9359.49	-10534.82	1.003	900.0	1	839.66	163.59	0.0	0.0	0.0	0.0	0.0	0.0	0.0	0.0	0.0	0.0	839.6633				
];

%% branch data
%    f_bus    t_bus    r    x    b    rateA    rateB    rateC    ratio    angle    status    angmin    angmax
mpc.branch = [
	2	3	1.6672616608176318e-5	0.014590844246031071	0.01794329248372272	2196.0	2196.0	2196.0	0	0	1	-29.999999999999996	29.999999999999996								
	2	4	2.3440871036628027e-5	0.017300764614699298	0.012151581519144163	1853.0	1853.0	1853.0	0.9545	0.0	1	-29.999999999999996	29.999999999999996								
	3	8	0.001768021214391662	0.019635900344319706	2.5751737357096296	1605.9999999999998	1605.9999999999998	1605.9999999999998	0	0	1	-29.999999999999996	29.999999999999996								
	5	6	1.200277913493615e-5	0.012379968123659607	0.05320164150455225	2589.0	2589.0	2589.0	0	0	1	-29.999999999999996	29.999999999999996								
	5	11	1.7608652851487268e-5	0.01499483149011364	0.044165722515578584	2137.0	2137.0	2137.0	0	0	1	-29.999999999999996	29.999999999999996								
	17	5	0.008656609240480501	0.09746437145521894	2.0503039086094503	291.0	291.0	291.0	0	0	1	-29.999999999999996	29.999999999999996								
	5	160	0.008157280960948067	0.13769804489290305	2.4467772004838064	234.0	234.0	234.0	0	0	1	-29.999999999999996	29.999999999999996								
	7	8	9.479488543241806e-6	0.01100198668584757	0.012146035950006646	2914.0	2914.0	2914.0	1.063	0.0	1	-29.999999999999996	29.999999999999996								
	7	8	9.475435305059934e-6	0.01099963432226446	0.04489908287246284	2914.0	2914.0	2914.0	1.063	0.0	1	-29.999999999999996	29.999999999999996								
	7	28	1.3036270886735897e-6	0.0040799560913429	0.015068370992635399	5501.81	7856.0	7856.0	0	0	1	-29.999999999999996	29.999999999999996								
	8	9	2.725422157564909e-6	0.005899234608299313	0.012146666715445769	5432.0	5432.0	5432.0	0	0	1	-29.999999999999996	29.999999999999996								
	8	10	0.0002846625201079998	0.014029795045755793	0.02386103505364255	2322.0	2322.0	2322.0	0	0	1	-29.999999999999996	29.999999999999996								
	8	10	0.0002754931904752606	0.013204673151223872	0.012154220870161936	2306.0	2306.0	2306.0	0	0	1	-29.999999999999996	29.999999999999996								
	8	17	0.0005000135140460504	0.005300143247610941	0.07813582824951255	2202.27	6021.0	6021.0	0	0	1	-29.999999999999996	29.999999999999996								
	163	8	0.004698829322890284	0.042681032466685295	0.6944951438201747	731.0	731.0	731.0	0	0	1	-29.999999999999996	29.999999999999996								
	12	13	3.4743034104419918e-6	0.006660588995144413	0.01214527962768039	4813.0	4813.0	4813.0	1.08	0.0	1	-29.999999999999996	29.999999999999996								
	12	20	3.1483610013218036e-6	0.00634046386474521	0.012144816083651084	5055.0	5055.0	5055.0	0	0	1	-29.999999999999996	29.999999999999996								
	12	22	1.1057323488064766e-5	0.011882385630720253	0.01214764376673495	2698.0	2698.0	2698.0	0	0	1	-29.999999999999996	29.999999999999996								
	12	139	0.0028085299597737094	0.02116427928895042	0.8834155362341246	1506.0	1506.0	1506.0	0	0	1	-29.999999999999996	29.999999999999996								
	21	14	3.148797604075401e-6	0.0063409034851273725	0.012149802902834036	5055.0	5055.0	5055.0	0	0	1	-29.999999999999996	29.999999999999996								
	14	24	5.34392586118799e-6	0.008260549624560876	0.01214913994911558	3879.9999999999995	3879.9999999999995	3879.9999999999995	0	0	1	-29.999999999999996	29.999999999999996								
	14	26	2.5253524248402085e-5	0.01795723189489039	0.012158660209211499	1786.0	1786.0	1786.0	0	0	1	-29.999999999999996	29.999999999999996								
	29	14	2.9326410305978296e-6	0.00611939132663451	0.06801861621668069	5237.0	5237.0	5237.0	0	0	1	-29.999999999999996	29.999999999999996								
	16	15	6.013977933904255e-5	0.004961531719836914	0.3944498725127089	6473.999999999999	6473.999999999999	6473.999999999999	1.1061	0.0	1	-29.999999999999996	29.999999999999996								
	16	19	0.00040030240588170965	0.009607257698486997	0.936530708236792	3336.0	3336.0	3336.0	0	0	1	-29.999999999999996	29.999999999999996								
	16	19	0.0003940879190983014	0.009458110017666672	0.9969752009490244	3336.0	3336.0	3336.0	0	0	1	-29.999999999999996	29.999999999999996								
	16	136	0.002585203348909429	0.02961505116860029	2.2830754680618686	1077.0	1077.0	1077.0	0	0	1	-29.999999999999996	29.999999999999996								
	16	136	0.0026244624859757325	0.030064788063884976	2.1728297840273765	1077.0	1077.0	1077.0	0	0	1	-29.999999999999996	29.999999999999996								
	17	18	2.816401134592533e-6	0.005996889281026929	0.01214897912045366	5342.0	5342.0	5342.0	1.0435	0.0	1	-29.999999999999996	29.999999999999996								
	23	19	1.1054908046594806e-5	0.011881087723962569	0.012145136354344322	2698.0	2698.0	2698.0	0	0	1	-29.999999999999996	29.999999999999996								
	25	19	5.344903863951917e-6	0.008261305479675372	0.012146529479593143	3879.9999999999995	3879.9999999999995	3879.9999999999995	0	0	1	-29.999999999999996	29.999999999999996								
	20	21	0.0007768836875268164	0.018201274688418628	1.4774782643523012	1775.0	1775.0	1775.0	0	0	1	-29.999999999999996	29.999999999999996								
	22	23	0.002333067495573236	0.05677775279704753	4.82539377130351	546.0	546.0	546.0	0	0	1	-29.999999999999996	29.999999999999996								
	24	25	0.00175187469076378	0.04153606456373308	3.0124636179111186	755.0	755.0	755.0	0	0	1	-29.999999999999996	29.999999999999996								
	26	27	0.00231515472099604	0.05546304555730329	3.980227489574784	646.0	646.0	646.0	0	0	1	-29.999999999999996	29.999999999999996								
	27	139	2.5247187076881595e-5	0.017954978645555536	0.03982735436456028	1786.0	1786.0	1786.0	0	0	1	-29.999999999999996	29.999999999999996								
	28	29	0.0017612690433549709	0.041683363376878405	3.3012598082019733	765.0	765.0	765.0	0	0	1	-29.999999999999996	29.999999999999996								
	31	30	1.7621397384678498e-7	0.001500026711780195	0.012159769630590237	21366.0	21366.0	21366.0	1.05	0.0	1	-29.999999999999996	29.999999999999996								
	31	32	0.00330998217715503	0.06619963276203668	4.548260050989736	458.0	458.0	458.0	0	0	1	-29.999999999999996	29.999999999999996								
	31	80	0.0008619931687207702	0.024821247778349587	3.359148836533084	1341.0	1341.0	1341.0	0	0	1	-29.999999999999996	29.999999999999996								
	32	33	7.833991841579524e-6	0.010001617638939217	0.1275571543120916	3204.9999999999995	3204.9999999999995	3204.9999999999995	1.1	0.0	1	-29.999999999999996	29.999999999999996								
	33	34	0.0020114212532828866	0.02011421246535183	0.7590427149843667	855.66	1595.0	1595.0	0	0	1	-29.999999999999996	29.999999999999996								
	34	35	3.1323563319049766e-7	0.001999928172959312	0.018433645390473742	16025.0	16025.0	16025.0	0	0	1	-29.999999999999996	29.999999999999996								
	85	36	1.6585514215830248e-6	0.0046019645140650735	0.012165868907344715	6968.000000000001	6968.000000000001	6968.000000000001	0	0	1	-29.999999999999996	29.999999999999996								
	37	38	0.0007408148226303639	0.01863049134660687	1.1338576357292498	1721.0	1721.0	1721.0	0	0	1	-29.999999999999996	29.999999999999996								
	37	56	0.0008270741901293642	0.016823899225067617	1.201654558302369	1920.0	1920.0	1920.0	0	0	1	-29.999999999999996	29.999999999999996								
	37	64	1.9799322182037732e-7	0.0015900251040892812	0.09561221017253861	5755.18	20157.0	20157.0	0	0	1	-29.999999999999996	29.999999999999996								
	37	64	1.9793201635850548e-7	0.0015897793236008997	0.057868643305912314	5757.14	20157.0	20157.0	0	0	1	-29.999999999999996	29.999999999999996								
	38	48	0.0001307023671335451	0.006967441489977678	0.013829469243765867	4624.0	4624.0	4624.0	1.05	0.0	1	-29.999999999999996	29.999999999999996								
	39	40	0.0005068096580424444	0.024124136812039357	0.012149111644454182	1347.0	1347.0	1347.0	0	0	1	-29.999999999999996	29.999999999999996								
	39	46	0.0022918146387886688	0.03469869501330589	0.18212397055372512	892.46	956.0	956.0	0	0	1	-29.999999999999996	29.999999999999996								
	39	48	0.0029102413655838766	0.03813419637907057	0.012160963253633462	841.0	841.0	841.0	0	0	1	-29.999999999999996	29.999999999999996								
	39	59	0.003306391953973738	0.05004528925789955	0.2878811042117393	684.0	684.0	684.0	0	0	1	-29.999999999999996	29.999999999999996								
	39	60	0.0022185832888960222	0.03359288427002571	0.0875511221952179	832.1	935.0	935.0	0	0	1	-29.999999999999996	29.999999999999996								
	55	41	0.00046840852225123446	0.007205518324570693	0.012147597791612246	754.41	4424.0	4424.0	0	0	1	-29.999999999999996	29.999999999999996								
	41	58	0.0003491638823301515	0.005347195452286803	0.012147421449147433	822.5799999999999	5967.0	5967.0	0	0	1	-29.999999999999996	29.999999999999996								
	42	43	0.0005897297415081046	0.025775253795791635	0.05418705817069017	1264.0	1264.0	1264.0	1.0491	0.0	1	-29.999999999999996	29.999999999999996								
	50	42	0.002100675024345646	0.032675044419568804	0.024113600637305495	761.15	935.0	935.0	0	0	1	-29.999999999999996	29.999999999999996								
	50	42	0.0024432098313675278	0.037664439527033355	0.06847935971362784	872.0000000000001	872.0000000000001	872.0000000000001	0	0	1	-29.999999999999996	29.999999999999996								
	57	42	0.0019843519501613394	0.03034775015541487	0.034262652137780146	768.89	1041.0	1041.0	0	0	1	-29.999999999999996	29.999999999999996								
	42	58	0.0027803543552985597	0.042506768210880085	0.07430778348866797	745.0	745.0	745.0	0	0	1	-29.999999999999996	29.999999999999996								
	44	45	2.1175999892131073e-6	0.0051999689486013625	0.01214764013466944	6164.0	6164.0	6164.0	1.025	0.0	1	-29.999999999999996	29.999999999999996								
	44	160	0.001800091112918241	0.024501239919620506	0.37980268647307136	1305.0	1305.0	1305.0	0	0	1	-29.999999999999996	29.999999999999996								
	44	160	0.001802537320913825	0.024534535527499114	0.369032183152341	1305.0	1305.0	1305.0	0	0	1	-29.999999999999996	29.999999999999996								
	48	46	0.0002898496366540972	0.0043377497333422785	0.012152272410900668	841.15	7369.0	7369.0	0	0	1	-29.999999999999996	29.999999999999996								
	48	47	0.0045039154904262906	0.10355389089934547	0.020164061668498785	280.0	280.0	280.0	1.0478	0.0	1	-29.999999999999996	29.999999999999996								
	49	48	0.00026467916421121047	0.014109434746637284	0.012147617546543157	2312.0	2312.0	2312.0	1.05	0.0	1	-29.999999999999996	29.999999999999996								
	48	55	0.0022868023818361435	0.015807895925684427	0.01214829392671158	855.66	2004.0	2004.0	0	0	1	-29.999999999999996	29.999999999999996								
	48	55	0.0022777231047887655	0.015745133936497693	0.012154104699349993	905.33	2004.0	2004.0	0	0	1	-29.999999999999996	29.999999999999996								
	48	59	0.0014110200276674259	0.00967699550555641	0.04530251671070391	772.89	3279.9999999999995	3279.9999999999995	0	0	1	-29.999999999999996	29.999999999999996								
	48	59	0.0014108134777893787	0.009675578954266677	0.0349612641339709	912.29	3279.9999999999995	3279.9999999999995	0	0	1	-29.999999999999996	29.999999999999996								
	48	59	0.0016078042493859162	0.009696757302727729	0.018761369510905623	763.48	3257.0	3257.0	0	0	1	-29.999999999999996	29.999999999999996								
	48	59	0.0016109109554337487	0.00971549402055348	0.012146774190861975	911.69	3257.0	3257.0	0	0	1	-29.999999999999996	29.999999999999996								
	48	60	0.00026958700523129647	0.003923988630727719	0.01216046550603192	837.06	8136.0	8136.0	0	0	1	-29.999999999999996	29.999999999999996								
	48	60	0.00027017714052576596	0.003932578377785019	0.04593962343171243	783.45	8136.0	8136.0	0	0	1	-29.999999999999996	29.999999999999996								
	48	60	0.0002697158274897798	0.003925863710266425	0.0788174097537325	804.85	8136.0	8136.0	0	0	1	-29.999999999999996	29.999999999999996								
	48	62	0.001380334261265956	0.011162703149079582	0.027941518297646507	758.56	2851.0	2851.0	0	0	1	-29.999999999999996	29.999999999999996								
	48	62	0.0013798805853120404	0.011159034291372643	0.012148169793062385	759.88	2851.0	2851.0	0	0	1	-29.999999999999996	29.999999999999996								
	64	49	0.0008192526422618211	0.018596047650195357	1.6812231248486267	1700.0	1700.0	1700.0	0	0	1	-29.999999999999996	29.999999999999996								
	50	57	0.00037019236410552924	0.0036619028445956953	0.012153622153127366	880.09	8713.0	8713.0	0	0	1	-29.999999999999996	29.999999999999996								
	50	58	0.0005523323080691965	0.005884849680562426	0.012165227748950501	835.5	5446.0	5446.0	0	0	1	-29.999999999999996	29.999999999999996								
	52	51	0.0006052769661632196	0.01529606686588331	0.1432870616284742	2148.0	2148.0	2148.0	1.0017	0.0	1	-29.999999999999996	29.999999999999996								
	53	51	0.0005901531427507949	0.014913869919118737	0.02073533303109856	2148.0	2148.0	2148.0	1.0017	0.0	1	-29.999999999999996	29.999999999999996								
	54	51	0.0002960565043119626	0.013125171305552493	0.1548199057882458	2410.0	2410.0	2410.0	0	0	1	-29.999999999999996	29.999999999999996								
	54	51	0.00029886033056606646	0.013349094352900086	0.043726882146767725	2392.0	2392.0	2392.0	0	0	1	-29.999999999999996	29.999999999999996								
	52	63	0.01042173909711321	0.076994247963578	0.38754282577604776	401.99999999999994	401.99999999999994	401.99999999999994	0	0	1	-29.999999999999996	29.999999999999996								
	53	63	0.010190339952216972	0.07528470582313683	0.2956729149814801	401.99999999999994	401.99999999999994	401.99999999999994	0	0	1	-29.999999999999996	29.999999999999996								
	57	54	0.000729472986050821	0.010242600129287226	0.01214946013488383	765.61	3119.0	3119.0	0	0	1	-29.999999999999996	29.999999999999996								
	57	54	0.0007308342561586138	0.010261713853304695	0.057061330834965986	898.03	3119.0	3119.0	0	0	1	-29.999999999999996	29.999999999999996								
	56	55	0.00012460322291416652	0.013284618046391323	0.012163426832376006	2313.0	2313.0	2313.0	1.0106	0.0	1	-29.999999999999996	29.999999999999996								
	56	55	0.0001353581862899916	0.014431261865166538	0.01215530555495317	2313.0	2313.0	2313.0	1.0106	0.0	1	-29.999999999999996	29.999999999999996								
	55	58	0.001184840221425165	0.012386060785308187	0.01696357203558208	856.67	2565.0	2565.0	0	0	1	-29.999999999999996	29.999999999999996								
	55	58	0.001195402496286098	0.012496476498517031	0.03947468534885861	852.17	2565.0	2565.0	0	0	1	-29.999999999999996	29.999999999999996								
	62	55	0.0012820181108312478	0.009805435390212641	0.012164096547896408	868.54	3246.0	3246.0	0	0	1	-29.999999999999996	29.999999999999996								
	57	58	0.0010974539104571688	0.0118624790708154	0.10564836394409408	908.69	2684.0	2684.0	0	0	1	-29.999999999999996	29.999999999999996								
	60	61	1.0356936036223375e-7	0.0011499910715126885	0.06548342660983661	27869.0	27869.0	27869.0	1.0133	0.0	1	-29.999999999999996	29.999999999999996								
	137	61	0.0013522467187471045	0.025499509049829932	0.20570467899486441	848.66	1213.0	1213.0	0	0	1	-29.999999999999996	29.999999999999996								
	150	61	0.0006529264322673197	0.011923441106698815	0.012145624833671893	913.9900000000001	2696.0	2696.0	0	0	1	-29.999999999999996	29.999999999999996								
	150	61	0.0006474616690611624	0.011823646124479859	0.08240549523389704	773.57	2696.0	2696.0	0	0	1	-29.999999999999996	29.999999999999996								
	64	63	0.0001755076794932502	0.020516835642210924	0.012153647482606904	1371.0	1371.0	1371.0	0.9789	0.0	1	-29.999999999999996	29.999999999999996								
	139	64	0.0017984494054049188	0.025359141055993125	0.6355274998902726	1267.0	1267.0	1267.0	0	0	1	-29.999999999999996	29.999999999999996								
	139	64	0.0017879275841904678	0.0252107775036936	0.5588192030704014	1267.0	1267.0	1267.0	0	0	1	-29.999999999999996	29.999999999999996								
	142	64	0.00020019323570666454	0.004103961329306754	0.31320580084938066	5830.69	7808.0	7808.0	0	0	1	-29.999999999999996	29.999999999999996								
	66	65	1.956807884652994e-6	0.004998651793009142	0.01215447921592653	6409.999999999999	6409.999999999999	6409.999999999999	1.09	0.0	1	-29.999999999999996	29.999999999999996								
	78	66	0.0004220307363891302	0.044614546567427735	4.862235661793458	434.0	434.0	434.0	0	0	1	-29.999999999999996	29.999999999999996								
	68	67	0.0009327369667863942	0.031335766876768686	0.06278308691155172	1072.0	1072.0	1072.0	0.9873	0.0	1	-29.999999999999996	29.999999999999996								
	69	68	0.00019180656913505095	0.011326177464818385	0.012154606427307374	2714.0	2714.0	2714.0	1.0238	0.0	1	-29.999999999999996	29.999999999999996								
	69	68	9.065558359439683e-5	0.0074035390919539685	0.04427423592087257	4361.0	4361.0	4361.0	1.0238	0.0	1	-29.999999999999996	29.999999999999996								
	68	70	8.365372979773283e-6	0.010335258313530788	0.09883492287344953	3100.0	3100.0	3100.0	1.0455	0.0	1	-29.999999999999996	29.999999999999996								
	68	71	5.9986809647197584e-5	0.0013097120105597642	0.028020087634771266	828.29	24439.0	24439.0	0	0	1	-29.999999999999996	29.999999999999996								
	68	71	6.0029203090516725e-5	0.0011605645930485267	0.09189343849437005	776.56	27592.0	27592.0	0	0	1	-29.999999999999996	29.999999999999996								
	69	72	9.999756871687374e-6	0.00029999270615125136	0.01571141120369755	5711.04	106769.0	106769.0	0	0	1	-29.999999999999996	29.999999999999996								
	69	72	9.993544065355313e-6	0.00029980632196129216	0.07912851390639264	5829.8	106769.0	106769.0	0	0	1	-29.999999999999996	29.999999999999996								
	69	76	0.00022956194918737107	0.004501410392316476	0.2587899789149562	5923.31	7097.0	7097.0	0	0	1	-29.999999999999996	29.999999999999996								
	69	76	0.0002004666601661772	0.00447040651833646	0.24326345282437195	6169.99	7179.000000000001	7179.000000000001	0	0	1	-29.999999999999996	29.999999999999996								
	72	71	3.823959796186576e-7	0.0022097109894409087	0.07910383006101504	14502.000000000002	14502.000000000002	14502.000000000002	1.0234	0.0	1	-29.999999999999996	29.999999999999996								
	75	73	0.0017921435045512022	0.014066824709151703	3.7803139582903125	2263.0	2263.0	2263.0	0	0	1	-29.999999999999996	29.999999999999996								
	78	74	0.001132776573860742	0.020740838075219793	1.8402822691395961	1547.0	1547.0	1547.0	0	0	1	-29.999999999999996	29.999999999999996								
	75	76	0.0019055049169196087	0.03212136767647563	1.875931709791801	969.0	969.0	969.0	0	0	1	-29.999999999999996	29.999999999999996								
	75	78	0.0014297076507430511	0.02273436503606026	1.9015628963048952	1417.0	1417.0	1417.0	0	0	1	-29.999999999999996	29.999999999999996								
	76	77	1.101478000589176e-6	0.0037503061173030194	0.012164850098257775	8547.0	8547.0	8547.0	1.0977	0.0	1	-29.999999999999996	29.999999999999996								
	78	76	0.001171195818808903	0.022604078933098837	1.7268436070075428	1382.0	1382.0	1382.0	0	0	1	-29.999999999999996	29.999999999999996								
	78	76	0.0003012291374372039	0.020081939145504286	3.6455612060495106	1603.0	1603.0	1603.0	0	0	1	-29.999999999999996	29.999999999999996								
	82	76	0.0006022581035241044	0.013498229115745537	1.0751096371485553	2268.0	2268.0	2268.0	0	0	1	-29.999999999999996	29.999999999999996								
	82	76	0.0010884335645742432	0.02404539405829048	1.4295462780427552	1330.0	1330.0	1330.0	0	0	1	-29.999999999999996	29.999999999999996								
	82	76	0.0010842570702013776	0.024184955639422433	1.5689620512990714	1330.0	1330.0	1330.0	0	0	1	-29.999999999999996	29.999999999999996								
	80	78	0.00020120893683940434	0.008249566325220371	1.3488845895407224	3908.0	3908.0	3908.0	0	0	1	-29.999999999999996	29.999999999999996								
	80	78	0.00019835570774546273	0.008132583935913826	1.3984129350185643	3908.0	3908.0	3908.0	0	0	1	-29.999999999999996	29.999999999999996								
	80	79	4.895188296931316e-7	0.0025001353219829005	0.012149800987604167	12819.999999999998	12819.999999999998	12819.999999999998	1.066	0.0	1	-29.999999999999996	29.999999999999996								
	81	99	0.002628902019047158	0.05333483822258277	5.300204779951376	598.0	598.0	598.0	0	0	1	-29.999999999999996	29.999999999999996								
	81	180	5.56924230649537e-5	0.02666710880737281	0.15525245386868655	1202.0	1202.0	1202.0	0	0	1	-29.999999999999996	29.999999999999996								
	82	87	0.0004084656281509326	0.007342418719314431	0.7431570773747109	4342.0	4342.0	4342.0	0	0	1	-29.999999999999996	29.999999999999996								
	82	91	0.0006740658683311897	0.012929808853162868	0.8111621519551189	2529.0	2529.0	2529.0	0	0	1	-29.999999999999996	29.999999999999996								
	82	95	0.0006696533628037177	0.012845168976234106	0.9104952074919901	2529.0	2529.0	2529.0	0	0	1	-29.999999999999996	29.999999999999996								
	83	89	0.0007148171937772026	0.013720518832139136	1.2708679223203911	2316.0	2316.0	2316.0	0	0	1	-29.999999999999996	29.999999999999996								
	94	83	0.0007813405022441487	0.0150458131564637	1.1482815607144419	2131.0	2131.0	2131.0	0	0	1	-29.999999999999996	29.999999999999996								
	98	83	0.0007443340892979791	0.01421275759079879	1.209250376952502	2266.0	2266.0	2266.0	0	0	1	-29.999999999999996	29.999999999999996								
	83	168	4.058811346580789e-6	0.007199099683180121	0.13825659301279766	4452.0	4452.0	4452.0	0	0	1	-29.999999999999996	29.999999999999996								
	83	170	5.857079319936434e-6	0.008648071595798841	0.012147339126205109	3710.0	3710.0	3710.0	0	0	1	-29.999999999999996	29.999999999999996								
	83	172	7.834847094207548e-6	0.01000216357204883	0.14911708551628344	3204.9999999999995	3204.9999999999995	3204.9999999999995	0	0	1	-29.999999999999996	29.999999999999996								
	84	85	4.060332746727085e-6	0.0072004488074313925	0.012148587798161664	4452.0	4452.0	4452.0	1.05	0.0	1	-29.999999999999996	29.999999999999996								
	99	84	5.570400600123659e-5	0.026669881769991494	0.012148964910341866	1202.0	1202.0	1202.0	0	0	1	-29.999999999999996	29.999999999999996								
	156	85	0.00603705614147927	0.06553126769372636	1.160123113790663	475.0	475.0	475.0	0	0	1	-29.999999999999996	29.999999999999996								
	88	86	0.0006052113331671528	0.010449982322672396	1.027621455892406	3089.0	3089.0	3089.0	0	0	1	-29.999999999999996	29.999999999999996								
	90	86	0.00011979556895448827	0.0023759454505277024	0.183294610955295	5500.98	13449.0	13449.0	0	0	1	-29.999999999999996	29.999999999999996								
	180	86	0.0012116994467933166	0.02356854698235618	2.2246636696081867	1349.0	1349.0	1349.0	0	0	1	-29.999999999999996	29.999999999999996								
	87	88	1.2484829730387053e-5	0.012626120297088888	0.012153148602389485	2538.0	2538.0	2538.0	0	0	1	-29.999999999999996	29.999999999999996								
	89	90	5.75304490122147e-6	0.008570923271043418	0.012152788471358545	3736.0	3736.0	3736.0	0	0	1	-29.999999999999996	29.999999999999996								
	91	92	1.2481134729010032e-5	0.012624251751834651	0.01219130650148998	2538.0	2538.0	2538.0	0	0	1	-29.999999999999996	29.999999999999996								
	92	93	0.0007437234174913856	0.01435185179324238	1.132986929343589	2242.0	2242.0	2242.0	0	0	1	-29.999999999999996	29.999999999999996								
	93	94	1.2520953679762648e-5	0.01264437346686451	0.012149591449344894	2538.0	2538.0	2538.0	0	0	1	-29.999999999999996	29.999999999999996								
	95	96	1.2493475546513232e-5	0.012630491366521645	0.012184010210941058	2538.0	2538.0	2538.0	0	0	1	-29.999999999999996	29.999999999999996								
	96	97	0.0007366949816032043	0.014216221979320093	0.86900825992439	2242.0	2242.0	2242.0	0	0	1	-29.999999999999996	29.999999999999996								
	97	98	1.2490502549022552e-5	0.012628988477417466	0.012146426160618074	2538.0	2538.0	2538.0	0	0	1	-29.999999999999996	29.999999999999996								
	101	100	0.0245311946310143	0.1674090761273391	0.22476132201927954	188.0	188.0	188.0	0	0	1	-29.999999999999996	29.999999999999996								
	100	117	0.014743412907260504	0.10062378920153074	0.025476139899780887	314.0	314.0	314.0	0	0	1	-29.999999999999996	29.999999999999996								
	101	105	0.014038014112007446	0.09414204784814663	0.01215557357904583	343.0	343.0	343.0	0	0	1	-29.999999999999996	29.999999999999996								
	101	106	0.01673208992879006	0.11416541063663296	0.13524636147493227	279.0	279.0	279.0	0	0	1	-29.999999999999996	29.999999999999996								
	101	113	0.011282046571461505	0.06769227835342122	0.13024552078901733	474.0	474.0	474.0	0	0	1	-29.999999999999996	29.999999999999996								
	101	113	0.010503633804776192	0.06542263236830784	0.012145742367699094	484.0	484.0	484.0	0	0	1	-29.999999999999996	29.999999999999996								
	101	113	0.011005718941217537	0.06615383175843662	0.012149387909912686	476.0	476.0	476.0	0	0	1	-29.999999999999996	29.999999999999996								
	101	117	0.039499618422507064	0.2773271055071647	0.2046244473588924	115.99999999999999	115.99999999999999	115.99999999999999	0	0	1	-29.999999999999996	29.999999999999996								
	102	103	7.521292827522639e-6	0.009799974464440316	0.012156493813812926	3271.0	3271.0	3271.0	1.05	0.0	1	-29.999999999999996	29.999999999999996								
	104	102	0.0007817891365055605	0.019168677578643975	1.595137797476382	1654.0	1654.0	1654.0	0	0	1	-29.999999999999996	29.999999999999996								
	102	108	0.0008710333062681109	0.020894787013711325	1.4560696754245526	1535.0	1535.0	1535.0	0	0	1	-29.999999999999996	29.999999999999996								
	102	108	0.0008741879420377022	0.020970462006929036	1.55105102782048	1535.0	1535.0	1535.0	0	0	1	-29.999999999999996	29.999999999999996								
	107	104	0.0008275424477686608	0.019791225623041735	0.012148078692369477	1614.0	1614.0	1614.0	0	0	1	-29.999999999999996	29.999999999999996								
	134	104	0.000907950322322121	0.03557602460652795	1.3811054927329711	880.0000000000001	880.0000000000001	880.0000000000001	0	0	1	-29.999999999999996	29.999999999999996								
	104	135	0.0007111092304770875	0.01580242717857703	1.0620499078936942	2002.0	2002.0	2002.0	0	0	1	-29.999999999999996	29.999999999999996								
	105	117	0.027520551955464028	0.1841302886842086	0.12737749236889506	155.0	155.0	155.0	0	0	1	-29.999999999999996	29.999999999999996								
	106	117	0.022696630908755178	0.16355789515718977	0.24983625803491658	198.0	198.0	198.0	0	0	1	-29.999999999999996	29.999999999999996								
	107	108	0.0015164777989627426	0.01457008079103917	0.012205121139045878	2169.0	2169.0	2169.0	0	0	1	-29.999999999999996	29.999999999999996								
	110	107	0.0005267159910453737	0.012889634616060216	0.012145408520045333	2469.0	2469.0	2469.0	0	0	1	-29.999999999999996	29.999999999999996								
	109	108	2.371108108131084e-5	0.017400194297950877	0.012168577759520346	1842.0000000000002	1842.0000000000002	1842.0000000000002	1.119	0.0	1	-29.999999999999996	29.999999999999996								
	109	108	1.109051157649809e-5	0.011900204493377118	0.04724349849638432	2694.0	2694.0	2694.0	1.119	0.0	1	-29.999999999999996	29.999999999999996								
	133	108	1.626796031628266e-5	0.010826219810409286	0.012155988577067603	2408.0	2408.0	2408.0	0	0	1	-29.999999999999996	29.999999999999996								
	135	108	1.813352155318427e-5	0.009048603443902252	0.01215089255129642	3211.9999999999995	3211.9999999999995	3211.9999999999995	0	0	1	-29.999999999999996	29.999999999999996								
	108	174	6.854005734459225e-6	0.00935515394333807	0.01214850008714864	3428.0	3428.0	3428.0	0	0	1	-29.999999999999996	29.999999999999996								
	108	176	6.9807040763801915e-6	0.009441224364881068	0.14312185071525502	3395.0000000000005	3395.0000000000005	3395.0000000000005	0	0	1	-29.999999999999996	29.999999999999996								
	108	178	6.84711588581907e-6	0.00935045072532908	0.012175942444786718	3428.0	3428.0	3428.0	0	0	1	-29.999999999999996	29.999999999999996								
	111	120	7.825188449981884e-6	0.009995996440051405	0.015419767654759027	3204.9999999999995	3204.9999999999995	3204.9999999999995	0	0	1	-29.999999999999996	29.999999999999996								
	173	111	7.84165194153957e-6	0.010006506246583924	0.0631484809090892	3204.9999999999995	3204.9999999999995	3204.9999999999995	0	0	1	-29.999999999999996	29.999999999999996								
	112	113	4.074280885549747e-5	0.022808861789466985	0.022531635030206356	1406.0	1406.0	1406.0	0.9174	0.0	1	-29.999999999999996	29.999999999999996								
	113	114	0.0001093502156636573	0.019026914250081812	0.012147007098100909	1842.0000000000002	1842.0000000000002	1842.0000000000002	1.119	0.0	1	-29.999999999999996	29.999999999999996								
	114	124	2.0306481881836305e-5	0.010132898734889102	0.012167185142337802	3211.9999999999995	3211.9999999999995	3211.9999999999995	0	0	1	-29.999999999999996	29.999999999999996								
	114	126	2.035597861323451e-5	0.010157597284320226	0.01215126964714486	3211.9999999999995	3211.9999999999995	3211.9999999999995	0	0	1	-29.999999999999996	29.999999999999996								
	169	114	4.060278498846774e-6	0.007200400706662398	0.14810860894694866	4452.0	4452.0	4452.0	0	0	1	-29.999999999999996	29.999999999999996								
	171	114	4.060356436901188e-6	0.007200469813048795	0.11170010495320559	4452.0	4452.0	4452.0	0	0	1	-29.999999999999996	29.999999999999996								
	125	115	9.963195142845304e-6	0.006635471441811656	0.013003684318645995	4813.0	4813.0	4813.0	0	0	1	-29.999999999999996	29.999999999999996								
	127	115	9.815961733822327e-6	0.006537414836015216	0.012149839279341284	4813.0	4813.0	4813.0	0	0	1	-29.999999999999996	29.999999999999996								
	115	128	3.4511581046657913e-5	0.020992161102512424	0.028384106751524273	2862.0	2862.0	2862.0	0	0	1	-29.999999999999996	29.999999999999996								
	115	130	1.0059041636180118e-5	0.007242482223601759	0.25490132366552964	4452.0	4452.0	4452.0	0	0	1	-29.999999999999996	29.999999999999996								
	116	117	2.5740796831781087e-5	0.018129648286085466	0.012158490745701047	1766.0	1766.0	1766.0	0.9091	0.0	1	-29.999999999999996	29.999999999999996								
	117	119	0.00021251845398151007	0.013282402564064311	0.01215331015481125	2564.0	2564.0	2564.0	1.119	0.0	1	-29.999999999999996	29.999999999999996								
	118	119	1.5717181931622131e-6	0.00447987748006756	0.012158039723370857	7154.000000000001	7154.000000000001	7154.000000000001	0.9452	0.0	1	-29.999999999999996	29.999999999999996								
	123	119	7.834852826727567e-6	0.010002167231188065	0.012148341133854516	3204.9999999999995	3204.9999999999995	3204.9999999999995	0	0	1	-29.999999999999996	29.999999999999996								
	129	119	2.325728138083625e-5	0.01723265220998781	0.012145082016165862	2862.0	2862.0	2862.0	0	0	1	-29.999999999999996	29.999999999999996								
	131	119	9.098747586409849e-6	0.0032755487124632976	0.01214675441919464	5209.14	8903.0	8903.0	0	0	1	-29.999999999999996	29.999999999999996								
	119	132	1.0409593365030016e-5	0.007859199818852115	0.036345113394365074	4245.0	4245.0	4245.0	0	0	1	-29.999999999999996	29.999999999999996								
	119	134	0.00012345985614021417	0.03970437669406419	0.012145823116722335	2919.0	2919.0	2919.0	0	0	1	-29.999999999999996	29.999999999999996								
	120	121	0.0007395444016005249	0.018994613785662886	1.84813509604748	1641.0	1641.0	1641.0	0	0	1	-29.999999999999996	29.999999999999996								
	121	122	7.82950680257567e-6	0.009998754217532985	0.012213429159988867	3204.9999999999995	3204.9999999999995	3204.9999999999995	0	0	1	-29.999999999999996	29.999999999999996								
	122	123	0.0008147181970032479	0.021053510049853296	2.017542582594174	1512.0	1512.0	1512.0	0	0	1	-29.999999999999996	29.999999999999996								
	124	125	0.0014130639523071695	0.023598167746721077	1.41267485988503	1369.0	1369.0	1369.0	0	0	1	-29.999999999999996	29.999999999999996								
	126	127	0.0014103715340919249	0.02355320436425412	1.6659454755586973	1369.0	1369.0	1369.0	0	0	1	-29.999999999999996	29.999999999999996								
	128	129	0.001527856365581624	0.03382118243391312	2.3506401005527118	940.0	940.0	940.0	0	0	1	-29.999999999999996	29.999999999999996								
	130	131	0.0009524087218038176	0.021073295754872563	1.3691170193044535	1524.0	1524.0	1524.0	0	0	1	-29.999999999999996	29.999999999999996								
	132	133	0.0015969078757124373	0.05534976911774415	2.3486161199516906	561.0	561.0	561.0	0	0	1	-29.999999999999996	29.999999999999996								
	136	152	0.00041625900240218407	0.008969390380264392	0.4747386162885462	3538.0000000000005	3538.0000000000005	3538.0000000000005	0	0	1	-29.999999999999996	29.999999999999996								
	137	143	0.001903991684599179	0.0258542025983037	0.03284073494936134	911.65	1239.0	1239.0	0	0	1	-29.999999999999996	29.999999999999996								
	137	150	0.008455473527721299	0.07038556096054421	0.29180038080764226	453.0	453.0	453.0	0	0	1	-29.999999999999996	29.999999999999996								
	138	139	1.7929406130005298e-5	0.01513078536607232	0.054646762315557026	2120.0	2120.0	2120.0	0.996	0.0	1	-29.999999999999996	29.999999999999996								
	139	142	0.001941584577516681	0.02795680546974292	4.521510965354822	1151.0	1151.0	1151.0	0	0	1	-29.999999999999996	29.999999999999996								
	147	139	0.000564142344044865	0.014254667997962338	0.9483507771039097	2264.0	2264.0	2264.0	0	0	1	-29.999999999999996	29.999999999999996								
	140	141	1.043122889336797e-6	0.0036496107162191454	0.012181355932920962	8781.0	8781.0	8781.0	0.9787	0.0	1	-29.999999999999996	29.999999999999996								
	141	143	0.0011106113351578195	0.012822512665805218	0.08660345868979001	859.21	2515.0	2515.0	0	0	1	-29.999999999999996	29.999999999999996								
	142	145	0.00028085013710686386	0.007552862591069121	0.4686510725849548	4254.0	4254.0	4254.0	0	0	1	-29.999999999999996	29.999999999999996								
	142	145	0.000348818050473703	0.007474672495302948	0.4063960985026067	4269.0	4269.0	4269.0	0	0	1	-29.999999999999996	29.999999999999996								
	142	147	0.0019030267500048353	0.03104938299170638	4.148821671794773	1032.0	1032.0	1032.0	0	0	1	-29.999999999999996	29.999999999999996								
	142	151	0.0006045827776021189	0.01289776584227485	0.9470057352029869	2502.0	2502.0	2502.0	0	0	1	-29.999999999999996	29.999999999999996								
	142	153	0.00044681249514668075	0.011424183015727956	0.8635723944763523	2847.0	2847.0	2847.0	0	0	1	-29.999999999999996	29.999999999999996								
	142	153	0.0004381464692157033	0.011202608494471532	0.7996315168313582	2847.0	2847.0	2847.0	0	0	1	-29.999999999999996	29.999999999999996								
	146	143	0.0013726128220751114	0.05370096666953503	0.13036981450836882	594.0	594.0	594.0	0	0	1	-29.999999999999996	29.999999999999996								
	154	143	0.003351746034182745	0.04137311429170242	0.15276588397615887	754.67	809.0	809.0	0	0	1	-29.999999999999996	29.999999999999996								
	144	145	2.084986621268412e-6	0.005159770961960999	0.012152212486922075	6211.0	6211.0	6211.0	0.9843	0.0	1	-29.999999999999996	29.999999999999996								
	145	146	1.956356349114047e-6	0.004998075037666231	0.01214703613950275	6409.999999999999	6409.999999999999	6409.999999999999	0	0	1	-29.999999999999996	29.999999999999996								
	145	151	0.0002100852478629503	0.004571855152269294	0.30060213027074084	5370.29	7006.0	7006.0	0	0	1	-29.999999999999996	29.999999999999996								
	147	148	7.5271295850965045e-6	0.009803776267522676	0.012221007306655892	3271.0	3271.0	3271.0	1.05	0.0	1	-29.999999999999996	29.999999999999996								
	149	150	8.250503081801934e-6	0.010264053294077964	0.012147422298475666	3124.0	3124.0	3124.0	0.9871	0.0	1	-29.999999999999996	29.999999999999996								
	150	154	0.0029230543085891395	0.0374253507139715	0.11186217034734833	876.0	876.0	876.0	0	0	1	-29.999999999999996	29.999999999999996								
	150	154	0.001362900636611357	0.03356883316808147	0.1668713566607481	873.01	943.0	943.0	0	0	1	-29.999999999999996	29.999999999999996								
	151	152	0.00040093954406630764	0.009321844361821836	0.42920759250447693	3443.0	3443.0	3443.0	0	0	1	-29.999999999999996	29.999999999999996								
	153	154	1.035166185004999e-5	0.011496977610252396	0.21366017842125076	2790.0	2790.0	2790.0	1.0631	0.0	1	-29.999999999999996	29.999999999999996								
	153	154	1.033933654879861e-5	0.011490131086230084	0.01214637087558782	2790.0	2790.0	2790.0	1.0631	0.0	1	-29.999999999999996	29.999999999999996								
	153	154	1.0337940942061908e-5	0.011489355590024267	0.05990704503441655	2790.0	2790.0	2790.0	1.0631	0.0	1	-29.999999999999996	29.999999999999996								
	175	153	6.849739990654057e-6	0.009352242297123212	0.012172965549429007	3428.0	3428.0	3428.0	0	0	1	-29.999999999999996	29.999999999999996								
	177	153	6.834900321980808e-6	0.009342106193278944	0.07316723846226073	3428.0	3428.0	3428.0	0	0	1	-29.999999999999996	29.999999999999996								
	179	153	5.527369609346988e-6	0.008401135365074227	0.1739413681457324	3815.9999999999995	3815.9999999999995	3815.9999999999995	0	0	1	-29.999999999999996	29.999999999999996								
	156	155	0.0023409496162218038	0.03238313580035678	0.5802557747223376	963.0000000000001	963.0000000000001	963.0000000000001	0	0	1	-29.999999999999996	29.999999999999996								
	155	158	0.0053154963997982755	0.061537090170944934	0.9456833011727479	531.0	531.0	531.0	0	0	1	-29.999999999999996	29.999999999999996								
	155	158	0.004883562936373917	0.053519861588451664	0.978262925165007	595.0	595.0	595.0	0	0	1	-29.999999999999996	29.999999999999996								
	155	160	0.001719128323547092	0.02275316881320958	0.440740080541331	1421.0	1421.0	1421.0	0	0	1	-29.999999999999996	29.999999999999996								
	155	160	0.0020601256877407054	0.023348090989562583	0.40352090015858655	1342.0	1342.0	1342.0	0	0	1	-29.999999999999996	29.999999999999996								
	155	165	0.0012070545473573595	0.01730111508958094	0.3610813174404634	1859.0	1859.0	1859.0	0	0	1	-29.999999999999996	29.999999999999996								
	155	167	0.0008033604300074775	0.010644525680225368	0.17648165675194097	2253.37	3015.0	3015.0	0	0	1	-29.999999999999996	29.999999999999996								
	156	157	0.00029917850040220685	0.018050434244856934	0.03763984194340338	1771.0	1771.0	1771.0	0	0	1	-29.999999999999996	29.999999999999996								
	156	167	0.0016022424630778359	0.022631674596416008	0.2059059018272593	1415.0	1415.0	1415.0	0	0	1	-29.999999999999996	29.999999999999996								
	157	161	0.01070523040763372	0.09565320979051646	0.38432432109537196	331.0	331.0	331.0	0	0	1	-29.999999999999996	29.999999999999996								
	158	159	0.00019983074433827853	0.005795091572130105	0.04165558490174195	5523.0	5523.0	5523.0	0.9855	0.0	1	-29.999999999999996	29.999999999999996								
	158	164	0.00982191337890127	0.0898295767731903	1.37251574417585	363.0	363.0	363.0	0	0	1	-29.999999999999996	29.999999999999996								
	158	165	0.0034660659249397697	0.03996170052018745	0.7279351847165787	815.0	815.0	815.0	0	0	1	-29.999999999999996	29.999999999999996								
	158	166	0.00340941264789151	0.03750353857697796	0.59011026954195	853.9999999999999	853.9999999999999	853.9999999999999	0	0	1	-29.999999999999996	29.999999999999996								
	158	166	0.0034574820209497237	0.03782892037674543	0.48817628966102794	858.0	858.0	858.0	0	0	1	-29.999999999999996	29.999999999999996								
	160	166	0.0037354773613423493	0.03342269192667341	0.459958338200325	936.9999999999999	936.9999999999999	936.9999999999999	0	0	1	-29.999999999999996	29.999999999999996								
	160	166	0.003178218885790755	0.03466244929965204	0.5281580121261574	915.0	915.0	915.0	0	0	1	-29.999999999999996	29.999999999999996								
	161	162	0.0005132733004064003	0.014474306864226275	0.12498368379671257	2272.0	2272.0	2272.0	1.0588	0.0	1	-29.999999999999996	29.999999999999996								
	164	163	2.978317176324746e-5	0.019501310168787558	0.1049707134248074	1644.0000000000002	1644.0000000000002	1644.0000000000002	0	0	1	-29.999999999999996	29.999999999999996								
	168	169	0.001023576265482706	0.023234187053650223	1.5442395425227524	1370.0	1370.0	1370.0	0	0	1	-29.999999999999996	29.999999999999996								
	170	171	0.0010929847655243672	0.025230582340117887	1.5305184995768606	1297.0	1297.0	1297.0	0	0	1	-29.999999999999996	29.999999999999996								
	172	173	0.001041687079246659	0.032666494588940095	2.7412105667762066	992.0	992.0	992.0	0	0	1	-29.999999999999996	29.999999999999996								
	174	175	0.001236314030793926	0.026726495136944736	1.9876401828791466	1204.0	1204.0	1204.0	0	0	1	-29.999999999999996	29.999999999999996								
	176	177	0.0012308597237405121	0.026638605523572532	1.9388577184180302	1203.0	1203.0	1203.0	0	0	1	-29.999999999999996	29.999999999999996								
	178	179	0.0011261130308299592	0.025307378660432	1.8305433543220517	1273.0	1273.0	1273.0	0	0	1	-29.999999999999996	29.999999999999996								
];

%%-----  OPF Data  -----%%
%% cost data
%    1    startup    shutdown    n    x1    y1    ...    xn    yn
%    2    startup    shutdown    n    c(n-1)    ...    c0
mpc.gencost = [
	2	0.0	0.0	2	27.125018	0.0
	2	0.0	0.0	2	25.767823	0.0
	2	0.0	0.0	2	33.458506	0.0
	2	0.0	0.0	2	6.580729	0.0
	2	0.0	0.0	2	31.784817	0.0
	2	0.0	0.0	2	27.844304	0.0
	2	0.0	0.0	2	41.89924200000001	0.0
	2	0.0	0.0	2	26.88751	0.0
	2	0.0	0.0	2	26.647901	0.0
	2	0.0	0.0	2	23.718395	0.0
	2	0.0	0.0	2	49.354886	0.0
	2	0.0	0.0	2	35.232014	0.0
	2	0.0	0.0	2	21.891639	0.0
	2	0.0	0.0	2	25.383461000000004	0.0
	2	0.0	0.0	2	8.035714	0.0
	2	0.0	0.0	2	33.91213	0.0
	2	0.0	0.0	2	25.457586000000003	0.0
	2	0.0	0.0	2	7.168126	0.0
	2	0.0	0.0	2	8.487093	0.0
	2	0.0	0.0	2	19.203903	0.0
	2	0.0	0.0	2	30.820178	0.0
	2	0.0	0.0	2	124.67254	0.0
	2	0.0	0.0	2	28.267849	0.0
	2	0.0	0.0	2	31.546462	0.0
	2	0.0	0.0	2	22.349251	0.0
	2	0.0	0.0	2	7.230771	0.0
	2	0.0	0.0	2	14.174214	0.0
	2	0.0	0.0	2	8.614738	0.0
	2	0.0	0.0	2	49.876052	0.0
];

